/*--------------------------------*- C++ -*----------------------------------*\
| =========                 |                                                 |
| \\      /  F ield         | OpenFOAM: The Open Source CFD Toolbox           |
|  \\    /   O peration     | Version:  4.1                                   |
|   \\  /    A nd           | Web:      www.OpenFOAM.org                      |
|    \\/     M anipulation  |                                                 |
\*---------------------------------------------------------------------------*/
FoamFile
{
    version     2.0;
    format      ascii;
    class       dictionary;
    location    "system";
    object      fvSolution;
}
// * * * * * * * * * * * * * * * * * * * * * * * * * * * * * * * * * * * * * //

solvers
{
    "(p|pFinal)"
    {
        solver          GAMG;
        tolerance       1e-06;
        relTol          1e-04;
        smoother        GaussSeidel;
    }

    "(U|k|epsilon|omega|f|T)"
    {
        solver          smoothSolver;
        smoother        symGaussSeidel;
        tolerance       1e-05;
        relTol          1e-05;
    }
     p_rgh
    {
        solver          GAMG;
        smoother        DIC;
        tolerance       1e-6;
        relTol          0.01;
    }

    p_rghFinal
    {
        $p_rgh;
        relTol          0;
    }
     "(U|k|nuTilda|epsilon|omega|f|T)Final"
    {
        $U;
        tolerance       1e-05;
        relTol          0;
    }
}

PIMPLE
{
    nNonOrthogonalCorrectors 0;
   nCorrectors 2;
   nOuterCorrectors 10;

pRefCell 0;
pRefValue 0;
     residualControl
    {
        U
        {
                tolerance  1e-5;
                relTol      0;
        }
        p_rgh
        {
                tolerance  1e-5;
                relTol      0;
        }
        P
        {
                tolerance  1e-5;
                relTol      0;
        }
       T
        {
                tolerance  1e-5;
                relTol      0;
        }
     }
   
}


// ************************************************************************* //
